VADER_model/alloy/alloy_current.csv
# alloy_current.csv run at 2013-01-01 00:00:00 PST on 292 links
link_name,currA_real,currA_imag,currB_real,currB_imag,currC_real,currC_imag
TX_225912E_A,0.225624,-0.019669,0.000000,0.000000,0.000000,0.000000
TX_225912E_B,0.000000,0.000000,-0.138163,-0.181938,0.000000,0.000000
TX_225912E_C,0.000000,0.000000,0.000000,0.000000,-0.086701,0.201604
TX_804328E_A,0.225631,-0.019867,0.000000,0.000000,0.000000,0.000000
TX_804328E_B,0.000000,0.000000,-0.138346,-0.181836,0.000000,0.000000
TX_804328E_C,0.000000,0.000000,0.000000,0.000000,-0.086540,0.201697
TX_678131E_A,0.225606,-0.019501,0.000000,0.000000,0.000000,0.000000
TX_678132E_A,0.225606,-0.019501,0.000000,0.000000,0.000000,0.000000
TX_4510825E_A,0.225896,-0.018935,0.000000,0.000000,0.000000,0.000000
TX_P5354648_A,0.225618,-0.019573,0.000000,0.000000,0.000000,0.000000
TX_P5354648_B,0.000000,0.000000,-0.138077,-0.181985,0.000000,0.000000
TX_P5354648_C,0.000000,0.000000,0.000000,0.000000,-0.086775,0.201558
TX_P5502416_A,0.676822,-0.058555,0.000000,0.000000,0.000000,0.000000
TX_P5502416_B,0.000000,0.000000,-0.414090,-0.546019,0.000000,0.000000
TX_P5502416_C,0.000000,0.000000,0.000000,0.000000,-0.260427,0.604585
TX_P5445191_A,0.451225,-0.039002,0.000000,0.000000,0.000000,0.000000
TX_P5445191_B,0.000000,0.000000,-0.276022,-0.364039,0.000000,0.000000
TX_P5445191_C,0.000000,0.000000,0.000000,0.000000,-0.173660,0.403045
TX_1252662E_A,0.223423,-0.024658,0.000000,0.000000,0.000000,0.000000
TX_1252662E_B,0.000000,0.000000,-0.133862,-0.181679,0.000000,0.000000
TX_1252662E_C,0.000000,0.000000,0.000000,0.000000,-0.088126,0.204286
TX_754600H_A,0.225623,-0.019645,0.000000,0.000000,0.000000,0.000000
TX_754600H_B,0.000000,0.000000,-0.138142,-0.181950,0.000000,0.000000
TX_754600H_C,0.000000,0.000000,0.000000,0.000000,-0.086719,0.201593
TX_211421E_A,0.225293,-0.020425,0.000000,0.000000,0.000000,0.000000
TX_211421E_B,0.000000,0.000000,-0.137502,-0.181909,0.000000,0.000000
TX_211421E_C,0.000000,0.000000,0.000000,0.000000,-0.086898,0.201988
TX_P5513970_A,0.675095,-0.062247,0.000000,0.000000,0.000000,0.000000
TX_P5513970_B,0.000000,0.000000,-0.410337,-0.546021,0.000000,0.000000
TX_P5513970_C,0.000000,0.000000,0.000000,0.000000,-0.271801,0.632140
TX_1088555E_A,0.224093,-0.023030,0.000000,0.000000,0.000000,0.000000
TX_1088555E_B,0.000000,0.000000,-0.135032,-0.181831,0.000000,0.000000
TX_1088555E_C,0.000000,0.000000,0.000000,0.000000,-0.087822,0.203413
TX_4417545E_A,0.225637,-0.019861,0.000000,0.000000,0.000000,0.000000
TX_4417545E_B,0.000000,0.000000,-0.138337,-0.181844,0.000000,0.000000
TX_4417545E_C,0.000000,0.000000,0.000000,0.000000,-0.086553,0.201697
TX_2320043E_A,0.224955,-0.020981,0.000000,0.000000,0.000000,0.000000
TX_2320043E_B,0.000000,0.000000,-0.136660,-0.181977,0.000000,0.000000
TX_2320043E_C,0.000000,0.000000,0.000000,0.000000,-0.087259,0.202276
TX_1252657E_A,0.223642,-0.024232,0.000000,0.000000,0.000000,0.000000
TX_1252657E_B,0.000000,0.000000,-0.134315,-0.181686,0.000000,0.000000
TX_1252657E_C,0.000000,0.000000,0.000000,0.000000,-0.087956,0.204053
TX_P5444393_A,1.129560,-0.095825,0.000000,0.000000,0.000000,0.000000
TX_P5444393_B,0.000000,0.000000,-0.694612,-0.909379,0.000000,0.000000
TX_P5444393_C,0.000000,0.000000,0.000000,0.000000,-0.431832,1.006696
TX_4636936E_A,0.225917,-0.019236,0.000000,0.000000,0.000000,0.000000
TX_4636936E_B,0.000000,0.000000,-0.138987,-0.181840,0.000000,0.000000
TX_4636936E_C,0.000000,0.000000,0.000000,0.000000,-0.086312,0.201373
TX_P5341496_A,0.451222,-0.038995,0.000000,0.000000,0.000000,0.000000
TX_P5341496_B,0.000000,0.000000,-0.276016,-0.364040,0.000000,0.000000
TX_P5341496_C,0.000000,0.000000,0.000000,0.000000,-0.173663,0.403042
TX_1838130E_A,0.225904,-0.019044,0.000000,0.000000,0.000000,0.000000
TX_1838130E_B,0.000000,0.000000,-0.138812,-0.181935,0.000000,0.000000
TX_1838130E_C,0.000000,0.000000,0.000000,0.000000,-0.086459,0.201281
TX_211024E_A,0.225613,-0.019501,0.000000,0.000000,0.000000,0.000000
TX_211024E_B,0.000000,0.000000,-0.138012,-0.182020,0.000000,0.000000
TX_211024E_C,0.000000,0.000000,0.000000,0.000000,-0.086830,0.201523
TX_678122E_A,0.225353,-0.020050,0.000000,0.000000,0.000000,0.000000
TX_1679350E_A,0.225887,-0.018856,0.000000,0.000000,0.000000,0.000000
TX_1679350E_B,0.000000,0.000000,-0.138641,-0.182025,0.000000,0.000000
TX_1679350E_C,0.000000,0.000000,0.000000,0.000000,-0.086601,0.201189
TX_P5510937_A,1.353771,-0.118540,0.000000,0.000000,0.000000,0.000000
TX_P5510937_B,0.000000,0.000000,-0.829473,-1.091364,0.000000,0.000000
TX_P5510937_C,0.000000,0.000000,0.000000,0.000000,-0.519776,1.209878
TX_211021E_A,0.225619,-0.019572,0.000000,0.000000,0.000000,0.000000
TX_211021E_B,0.000000,0.000000,-0.138077,-0.181986,0.000000,0.000000
TX_211021E_C,0.000000,0.000000,0.000000,0.000000,-0.086775,0.201558
TX_1088558E_A,0.224398,-0.022417,0.000000,0.000000,0.000000,0.000000
TX_1088558E_B,0.000000,0.000000,-0.135678,-0.181835,0.000000,0.000000
TX_1088558E_C,0.000000,0.000000,0.000000,0.000000,-0.087582,0.203086
TX_4431000E_A,0.225902,-0.019020,0.000000,0.000000,0.000000,0.000000
TX_4431000E_B,0.000000,0.000000,-0.138791,-0.181946,0.000000,0.000000
TX_4431000E_C,0.000000,0.000000,0.000000,0.000000,-0.086477,0.201269
TX_1590592E_A,0.225934,-0.019523,0.000000,0.000000,0.000000,0.000000
TX_1590592E_B,0.000000,0.000000,-0.139246,-0.181697,0.000000,0.000000
TX_1590592E_C,0.000000,0.000000,0.000000,0.000000,-0.086091,0.201509
TX_678135E_A,0.225619,-0.019657,0.000000,0.000000,0.000000,0.000000
TX_678135E_B,0.000000,0.000000,-0.138156,-0.181941,0.000000,0.000000
TX_678135E_C,0.000000,0.000000,0.000000,0.000000,-0.086703,0.201596
TX_1809759E_A,0.225619,-0.019655,0.000000,0.000000,0.000000,0.000000
TX_1809759E_B,0.000000,0.000000,-0.138154,-0.181941,0.000000,0.000000
TX_1809759E_C,0.000000,0.000000,0.000000,0.000000,-0.086705,0.201595
TX_225914E_A,0.225622,-0.019645,0.000000,0.000000,0.000000,0.000000
TX_225914E_B,0.000000,0.000000,-0.138140,-0.181949,0.000000,0.000000
TX_225914E_C,0.000000,0.000000,0.000000,0.000000,-0.086720,0.201592
TX_678120E_A,0.225353,-0.020050,0.000000,0.000000,0.000000,0.000000
TX_P5204066_A,0.450472,-0.040608,0.000000,0.000000,0.000000,0.000000
TX_P5204066_B,0.000000,0.000000,-0.274425,-0.364026,0.000000,0.000000
TX_P5204066_C,0.000000,0.000000,0.000000,0.000000,-0.174196,0.403859
TX_4094873E_A,0.225891,-0.018876,0.000000,0.000000,0.000000,0.000000
TX_4094873E_B,0.000000,0.000000,-0.138660,-0.182017,0.000000,0.000000
TX_4094873E_C,0.000000,0.000000,0.000000,0.000000,-0.086587,0.201200
TX_226772E_A,0.225625,-0.019716,0.000000,0.000000,0.000000,0.000000
TX_226772E_B,0.000000,0.000000,-0.138207,-0.181913,0.000000,0.000000
TX_226772E_C,0.000000,0.000000,0.000000,0.000000,-0.086662,0.201626
TX_211437E_00331$211437E_T_00331-1_A,0.225764,-0.020203,0.000000,0.000000,0.000000,0.000000
TX_211437E_00331$211437E_T_00331-1_B,0.000000,0.000000,-0.139072,-0.181567,0.000000,0.000000
TX_211437E_00331$211437E_T_00331-1_C,0.000000,0.000000,0.000000,0.000000,-0.086032,0.201855
TX_1088259E_A,0.225619,-0.019572,0.000000,0.000000,0.000000,0.000000
TX_1088259E_B,0.000000,0.000000,-0.138077,-0.181986,0.000000,0.000000
TX_1088259E_C,0.000000,0.000000,0.000000,0.000000,-0.086776,0.201559
TX_678136E_A,0.225619,-0.019657,0.000000,0.000000,0.000000,0.000000
TX_678136E_B,0.000000,0.000000,-0.138156,-0.181941,0.000000,0.000000
TX_678136E_C,0.000000,0.000000,0.000000,0.000000,-0.086703,0.201596
TX_1590591E_A,0.225898,-0.019017,0.000000,0.000000,0.000000,0.000000
TX_1590591E_B,0.000000,0.000000,-0.138787,-0.181946,0.000000,0.000000
TX_1590591E_C,0.000000,0.000000,0.000000,0.000000,-0.086477,0.201266
TX_678145E_A,0.225290,-0.020925,0.000000,0.000000,0.000000,0.000000
TX_678145E_B,0.000000,0.000000,-0.137822,-0.181700,0.000000,0.000000
TX_678145E_C,0.000000,0.000000,0.000000,0.000000,-0.086586,0.202232
TX_225924E_A,0.225612,-0.019495,0.000000,0.000000,0.000000,0.000000
TX_211020E_A,0.225625,-0.019668,0.000000,0.000000,0.000000,0.000000
TX_211020E_B,0.000000,0.000000,-0.138164,-0.181939,0.000000,0.000000
TX_211020E_C,0.000000,0.000000,0.000000,0.000000,-0.086702,0.201605
TX_4707115E_A,0.225634,-0.019872,0.000000,0.000000,0.000000,0.000000
TX_4707115E_B,0.000000,0.000000,-0.138350,-0.181836,0.000000,0.000000
TX_4707115E_C,0.000000,0.000000,0.000000,0.000000,-0.086538,0.201700
TX_1590590E_A,0.225934,-0.019522,0.000000,0.000000,0.000000,0.000000
TX_1590590E_B,0.000000,0.000000,-0.139245,-0.181698,0.000000,0.000000
TX_1590590E_C,0.000000,0.000000,0.000000,0.000000,-0.086091,0.201509
TX_P5444394_A,0.225897,-0.018949,0.000000,0.000000,0.000000,0.000000
TX_P5444394_B,0.000000,0.000000,-0.138726,-0.181982,0.000000,0.000000
TX_P5444394_C,0.000000,0.000000,0.000000,0.000000,-0.086532,0.201235
TX_1088560E_A,0.224712,-0.022497,0.000000,0.000000,0.000000,0.000000
TX_1088560E_B,0.000000,0.000000,-0.136850,-0.181529,0.000000,0.000000
TX_1088560E_C,0.000000,0.000000,0.000000,0.000000,-0.086856,0.203110
source_00331$node_00331,13.980671,-1.237844,-7.724219,-10.186692,-138.524978,-64.429820
line_26268867_00331$26268859_00331,1.353716,-0.117531,-0.828547,-1.091867,-0.520576,1.209396
line_4292348E_00331$ND26270630_00331,2.484967,-0.209885,-1.388588,-1.819099,-0.864200,2.013054
line_33165E_00331$P5341496-1_00331,0.451222,-0.038995,-0.276016,-0.364040,-0.173663,0.403042
line_840252EPH_00331$26270533_00331,0.676822,-0.058555,-0.414090,-0.546019,-0.260427,0.604585
line_26270557_00331$P5513970_00331,0.675095,-0.062247,-0.410337,-0.546021,-0.271801,0.632140
line_26270533_00331_1$P5502416-1_00331,0.676822,-0.058555,-0.414090,-0.546019,-0.260427,0.604585
line_P5444393_00331$26270503_00331_1,0.225897,-0.018949,-0.138726,-0.181982,-0.086532,0.201235
line_225907E_00331$J5190-1P_00331,1.804941,-0.156533,-1.104570,-1.455906,-0.694236,1.612442
line_2320044E_00331_1$26270557_00331_1,0.675095,-0.062247,-0.410337,-0.546021,-0.271801,0.632140
line_26270523_00331$P5445191-1_00331,0.451225,-0.039002,-0.276022,-0.364039,-0.173660,0.403045
line_1557881E_00331_1$1658250EPT1_00331,0.000000,-0.000000,0.000000,0.000000,-0.000000,0.000000
line_26270503_00331$26270513_00331,0.225897,-0.018949,-0.138726,-0.181982,-0.086532,0.201235
line_J5190-3P_00331$225910E_00331,1.353716,-0.117531,-0.828547,-1.091867,-0.520576,1.209396
line_J5190-2P_00331$26270523_00331_1,0.451225,-0.039002,-0.276022,-0.364039,-0.173660,0.403045
line_26270493_00331$P5444393_00331,1.355457,-0.114773,-0.833338,-1.091361,-0.518364,1.207932
line_211420E_00331$P5204066_00331,0.450472,-0.040608,-0.274425,-0.364026,-0.174196,0.403859
line_151092E_00331$P5354648-A_00331,0.225618,-0.019573,-0.138077,-0.181985,-0.086775,0.201558
line_ND26270630_00331$BS2229-T_00331,1.355457,-0.114773,-0.833338,-1.091361,-0.518364,1.207932
line_BS2229-L_00331$1511150E_00331,-0.000000,0.000000,0.000000,-0.000000,0.000000,0.000000
line_26268851_00331$26268867_00331,1.804941,-0.156533,-1.104570,-1.455906,-0.694236,1.612442
line_BS2229-R_00331$26270493_00331_1,1.355457,-0.114773,-0.833338,-1.091361,-0.518364,1.207932
line_718811E_00331$ND10904198_00331,0.000000,0.000000,0.000000,0.000000,-0.000000,0.000000
line_1409957E_00331$P5510937-1_00331,1.353771,-0.118540,-0.829473,-1.091364,-0.519776,1.209878
line_26270513_00331_1$P5444394-1_00331,0.225897,-0.018949,-0.138726,-0.181982,-0.086532,0.201235
line_00331$4008139_00331_1_00331,13.980671,-1.237844,-7.724219,-10.186692,-138.524978,-64.429820
line_ND26270630_00331$4094874E_00331_1,1.129510,-0.095112,-0.555250,-0.727739,-0.345836,0.805123
line_4094873E_00331$4431000E_00331,0.677723,-0.057300,-0.416589,-0.545722,-0.259249,0.603923
line_ND102927457_00331$1838130E_00331,0.225904,-0.019044,-0.138812,-0.181935,-0.086459,0.201281
line_1088560E_00331$ND26270434_00331,12.860403,-1.121009,-7.048483,-9.278131,-138.086637,-65.447768
line_ND26309561_00331$1252662E_00331,0.223423,-0.024658,-0.133862,-0.181679,-0.088126,0.204286
line_1590591E_00331$1590590E_00331,0.451821,-0.038378,-0.277886,-0.363723,-0.172693,0.402697
line_ND26309561_00331$1252657E_00331,13.757249,-1.213185,-7.590357,-10.005012,-138.436852,-64.634106
line_1088558E_00331$1088560E_00331,13.085115,-1.143506,-7.185333,-9.459661,-138.173492,-65.244658
line_225914E_00331$PS0433_00331,0.000000,-0.000000,0.000000,0.000000,-0.000000,0.000000
line_ND102927544_00331$1590592E_00331,0.903653,-0.076918,-0.555919,-0.727366,-0.345261,0.805473
line_4707115E_00331$1809759E_00331,0.225619,-0.019655,-0.138154,-0.181941,-0.086705,0.201595
line_1590592E_00331$1590591E_00331,0.677719,-0.057395,-0.416673,-0.545669,-0.259170,0.603964
line_ND26270609_00331$211024E_00331,0.902476,-0.078313,-0.552328,-0.727932,-0.347083,0.806245
line_211421E_00331$PS0485_00331_1,3.614384,-0.307006,-2.083578,-2.728032,-28.142448,-12.166341
line_ND26270609_00331$151092E_00331_1,0.225618,-0.019573,-0.138077,-0.181985,-0.086775,0.201558
line_1088555E_00331$1088558E_00331,13.309513,-1.165924,-7.321011,-9.641496,-138.261074,-65.041572
line_ND26309375_00331$225914E_00331,0.225622,-0.019645,-0.138140,-0.181949,-0.086720,0.201592
line_ND26309465_00331$ND94548081_00331,0.000000,0.000000,-0.000000,0.000000,-0.000000,-0.000000
line_1252657E_00331$1088555E_00331,13.533606,-1.188953,-7.456043,-9.823326,-138.348896,-64.838160
line_211024E_00331$211021E_00331,0.676863,-0.058812,-0.414317,-0.545912,-0.260253,0.604722
line_ND26270649_00331$ND26270603_00331,11.960353,-1.037780,-6.501485,-8.550134,-84.500842,-36.050918
line_ND26270603_00331$ND102927587_00331,7.670205,-0.669743,-4.005980,-5.276166,-56.097299,-24.490424
line_ND106197862_00331$PS1390_00331,0.000000,0.000000,-0.000000,-0.000000,0.000000,-0.000000
line_ND94957693_00331$226772E_00331,3.384284,-0.293914,-1.933433,-2.547589,-1.214534,2.822003
line_226772E_00331$ND26309426_00331,3.158658,-0.274198,-1.795226,-2.365677,-1.127873,2.620377
line_1658250EPT1_00331_1$PS0237_00331,-0.000000,-0.000000,0.000000,0.000000,-0.000000,0.000000
line_ND102927565_00331$ND102927544_00331,3.388620,-0.286803,-1.944506,-2.546465,-1.209461,2.818527
line_4417545E_00331$ND26309375_00331,0.451234,-0.039140,-0.138140,-0.181949,-0.086720,0.201592
line_ND106197673_00331$1557881E_00331,0.000000,-0.000000,0.000000,-0.000000,-0.000000,0.000000
line_ND102927436_00331$4636936E_00331,0.225917,-0.019236,-0.138987,-0.181840,-0.086312,0.201373
line_678145E_00331$ND26270595_00331,7.444915,-0.648818,-3.868157,-5.094466,-56.010713,-24.692656
line_4094874E_00331$ND108680947_00331,1.129510,-0.095112,-0.555250,-0.727739,-0.345836,0.805123
line_ND102927587_00331$678145E_00331,7.670205,-0.669743,-4.005980,-5.276166,-56.097299,-24.490424
line_2320043E_00331$ND26270649_00331,12.635449,-1.100028,-6.911822,-9.096155,-84.772642,-35.418778
line_ND26270588_00331$ND94957693_00331,4.738054,-0.412454,-2.762906,-3.638953,-1.734311,4.031881
line_ND102927544_00331$PS0652_00331_1,2.484967,-0.209885,-1.388588,-1.819099,-0.864200,2.013054
line_ND26270434_00331$ND26309465_00331,12.860403,-1.121009,-7.048483,-9.278131,-84.859902,-35.216502
line_4008139_00331$PS1388_00331,13.980671,-1.237844,-7.724219,-10.186692,-138.524978,-64.429820
line_ND94957693_00331$BF00286_00331,1.353771,-0.118540,-0.829473,-1.091364,-0.519776,1.209878
line_ND26270603_00331$ND26309919_00331,0.000000,0.000000,0.000000,0.000000,0.000000,0.000000
line_ND92583208_00331$ND26309629_00331,4.290149,-0.368038,-2.495506,-3.273968,-28.403542,-11.560494
line_4431000E_00331$ND102927457_00331,0.451821,-0.038280,-0.277799,-0.363775,-0.172772,0.402653
line_211020E_00331$1088259E_00331,0.225619,-0.019572,-0.138077,-0.181986,-0.086776,0.201559
line_ND94957672_00331$4707115E_00331,0.451252,-0.039527,-0.276504,-0.363777,-0.173242,0.403295
line_ND26309465_00331$ND98973562_00331,12.860403,-1.121009,-7.048483,-9.278131,-84.859902,-35.216502
line_ND108680947_00331$4094873E_00331,0.903614,-0.076176,-0.555250,-0.727739,-0.345836,0.805123
line_ND26309954_00331$PS0567_00331,-0.000000,0.000000,0.000000,0.000000,-0.000000,-0.000000
line_PS1388_00331_1$ND106197862_00331,13.980671,-1.237844,-7.724219,-10.186692,-138.524978,-64.429820
line_ND94548081_00331$PS0025_00331,-0.000000,0.000000,-0.000000,-0.000000,-0.000000,-0.000000
line_211437E_00331$PS0445_00331,0.000000,-0.000000,-0.000000,-0.000000,0.000000,0.000000
line_BF00286_00331_1$1409957E_00331_1,1.353771,-0.118540,-0.829473,-1.091364,-0.519776,1.209878
line_1511150E_00331_1$972235E_00331,-0.000000,-0.000000,-0.000000,0.000000,0.000000,0.000000
line_ND106197862_00331$ND106197673_00331,13.980671,-1.237843,-7.724219,-10.186692,-138.524978,-64.429820
line_ND102927497_00331$211437E_00331,0.225764,-0.020203,-0.139072,-0.181567,-0.086032,0.201855
line_ND98973562_00331$PS1247_00331_1,12.860403,-1.121009,-7.048483,-9.278131,-84.859902,-35.216502
line_ND102927457_00331$PS0654_00331_1,0.225917,-0.019236,-0.138987,-0.181841,-0.086312,0.201373
line_PS0485_00331$ND102927497_00331,3.614384,-0.307006,-2.083578,-2.728032,-28.142448,-12.166341
line_PS0651_00331$ND102927565_00331,3.388620,-0.286803,-1.944506,-2.546465,-28.056416,-12.368196
line_ND26270603_00331$ND92583208_00331,4.290149,-0.368038,-2.495506,-3.273968,-28.403542,-11.560494
line_ND106197673_00331$ND26309561_00331,13.980671,-1.237843,-7.724219,-10.186692,-138.524978,-64.429820
line_211021E_00331$211020E_00331,0.451244,-0.039240,-0.276240,-0.363926,-0.173477,0.403164
line_ND26309629_00331$211420E_00331_1,0.450472,-0.040607,-0.274425,-0.364026,-0.174196,0.403859
line_754600H_00331$ND26270609_00331,1.128094,-0.097886,-0.690405,-0.909917,-0.433857,1.007803
line_ND26309426_00331$33165E_00331_1,0.451222,-0.038995,-0.276016,-0.364040,-0.173663,0.403042
line_225910E_00331_1$754600H_00331,1.353716,-0.117531,-0.828547,-1.091867,-0.520576,1.209396
line_225912E_00331$4417545E_00331,0.676871,-0.059001,-0.276477,-0.363793,-0.173273,0.403289
line_ND26270595_00331$ND70640903_00331,6.994210,-0.608719,-3.868157,-5.094466,-56.010713,-24.692656
line_ND70640903_00331$ND26270587_00331,6.994210,-0.608719,-3.868157,-5.094466,-2.427927,5.644650
line_ND26309629_00331$211421E_00331,3.839677,-0.327430,-2.221080,-2.909942,-28.229346,-11.964353
line_804328E_00331$840252EPH_00331_1,0.676822,-0.058555,-0.414090,-0.546019,-0.260427,0.604585
line_ND26270587_00331$ND26270588_00331,5.640544,-0.491295,-3.315722,-4.366612,-2.080959,4.838368
line_ND26270587_00331$804328E_00331,0.902453,-0.078421,-0.552435,-0.727855,-0.346968,0.806282
line_ND102927587_00331$ND26270569_00331,-0.000000,-0.000000,0.000000,0.000000,0.000000,-0.000000
line_ND94957672_00331$678135E_00331,0.451238,-0.039315,-0.276312,-0.363881,-0.173406,0.403192
line_BF00289_00331$678120E_00331,0.450705,-0.040099,0.000000,0.000000,0.000000,0.000000
line_678120E_00331$678122E_00331,0.225353,-0.020050,-0.000000,-0.000000,0.000000,0.000000
line_BF00287_00331_1$ND94957672_00331,0.902490,-0.078841,-0.552816,-0.727659,-0.346649,0.806487
line_ND26270624_00331$ND11556365_00331,-0.000000,-0.000000,0.000000,-0.000000,0.000000,0.000000
line_ND26309426_00331$ND26309954_00331,2.707437,-0.235203,-1.519209,-2.001637,-0.954210,2.217336
line_ND26270587_00331$678131E_00331,0.451212,-0.039002,0.000000,-0.000000,0.000000,0.000000
line_ND26309375_00331$225924E_00331,0.225612,-0.019495,-0.000000,-0.000000,0.000000,0.000000
line_678131E_00331$678132E_00331,0.225606,-0.019501,0.000000,-0.000000,0.000000,0.000000
line_ND102927436_00331$718811E_00331_1,-0.000000,-0.000000,0.000000,-0.000000,-0.000000,-0.000000
line_ND26270649_00331$2320044E_00331,0.675095,-0.062247,-0.410337,-0.546021,-0.271801,0.632140
line_ND26309546_00331$225907E_00331_1,1.804941,-0.156533,-1.104570,-1.455906,-0.694236,1.612442
line_ND26270624_00331$1679350E_00331,0.225887,-0.018856,-0.138641,-0.182025,-0.086601,0.201189
line_PS1247_00331$2320043E_00331,12.860403,-1.121009,-7.048483,-9.278131,-84.859902,-35.216502
line_PS0652_00331$4292348E_00331_1,2.484967,-0.209885,-1.388588,-1.819099,-0.864200,2.013054
line_1590590E_00331$ND26270624_00331,0.225887,-0.018856,-0.138641,-0.182025,-0.086601,0.201189
line_PS0654_00331$ND102927436_00331,0.225917,-0.019236,-0.138987,-0.181841,-0.086312,0.201373
line_ND26309954_00331$ND26309546_00331,2.707437,-0.235203,-1.519209,-2.001637,-0.954210,2.217336
line_ND26270588_00331$BF00287_00331,0.902490,-0.078841,-0.552816,-0.727659,-0.346649,0.806487
line_678135E_00331$678136E_00331,0.225619,-0.019657,-0.138156,-0.181941,-0.086703,0.201596
line_ND26309546_00331$225912E_00331,0.902495,-0.078670,-0.414640,-0.545731,-0.259974,0.604893
line_ND108680947_00331$4510825E_00331,0.225896,-0.018935,-0.000000,0.000000,0.000000,0.000000
line_ND102927497_00331$PS0651_00331_1,3.388620,-0.286803,-1.944506,-2.546465,-28.056416,-12.368196
line_ND26270595_00331$BF00289_00331_1,0.450705,-0.040099,-0.000000,0.000000,0.000000,0.000000
switch_J5190-2,0.451225,-0.039002,-0.276022,-0.364039,-0.173660,0.403045
switch_BF00287_00331$BF00287_00331_1-1,0.902490,-0.078841,-0.552816,-0.727659,-0.346649,0.806487
switch_33165E,0.451222,-0.038995,-0.276016,-0.364040,-0.173663,0.403042
switch_151092E,0.225618,-0.019573,-0.138077,-0.181985,-0.086775,0.201558
switch_1658250EPT1,0.000000,-0.000000,0.000000,0.000000,-0.000000,0.000000
switch_840252EPH,0.676822,-0.058555,-0.414090,-0.546019,-0.260427,0.604585
switch_BF00286_00331$BF00286_00331_1-1,1.353771,-0.118540,-0.829473,-1.091364,-0.519776,1.209878
switch_718811E,-0.000000,-0.000000,-0.000000,-0.000000,-0.000000,-0.000000
switch_PS1388,13.980671,-1.237844,-7.724219,-10.186692,-138.524978,-64.429820
switch_P5354648-A,0.225618,-0.019573,-0.138077,-0.181985,-0.086775,0.201558
switch_26270513,0.225897,-0.018949,-0.138726,-0.181982,-0.086532,0.201235
switch_1557881E,0.000000,-0.000000,0.000000,-0.000000,-0.000000,0.000000
switch_P5354648-T,0.225618,-0.019573,-0.138077,-0.181985,-0.086775,0.201558
switch_211420E,0.450472,-0.040607,-0.274425,-0.364026,-0.174196,0.403859
switch_P5341496-1,0.451222,-0.038995,-0.276016,-0.364040,-0.173663,0.403042
switch_26270533,0.676822,-0.058555,-0.414090,-0.546019,-0.260427,0.604585
switch_1409957E,1.353771,-0.118540,-0.829473,-1.091364,-0.519776,1.209878
switch_PS0652,2.484967,-0.209885,-1.388588,-1.819099,-0.864200,2.013054
switch_2320044E,0.675095,-0.062247,-0.410337,-0.546021,-0.271801,0.632140
switch_BF00289_00331_1$BF00289_00331-1,0.450705,-0.040099,0.000000,0.000000,0.000000,0.000000
switch_26270523,0.451225,-0.039002,-0.276022,-0.364039,-0.173660,0.403045
switch_PS0654,0.225917,-0.019236,-0.138987,-0.181840,-0.086312,0.201373
switch_BS2229-T_T_00331$BS2229-R_0033-1,1.355457,-0.114773,-0.833338,-1.091361,-0.518364,1.207932
switch_4094874E,1.129510,-0.095112,-0.555250,-0.727739,-0.345836,0.805123
switch_J5190-1,1.804941,-0.156533,-1.104570,-1.455906,-0.694236,1.612442
switch_26270557,0.675095,-0.062247,-0.410337,-0.546021,-0.271801,0.632140
switch_26270503,0.225897,-0.018949,-0.138726,-0.181982,-0.086532,0.201235
switch_1511150E,-0.000000,0.000000,0.000000,-0.000000,0.000000,0.000000
switch_P5502416-1,0.676822,-0.058555,-0.414090,-0.546019,-0.260427,0.604585
switch_P5445191-1,0.451225,-0.039002,-0.276022,-0.364039,-0.173660,0.403045
switch_PS0485_00331_1$PS0485_00331-1,3.614384,-0.307006,-2.083578,-2.728032,-28.142448,-12.166341
switch_P5444394-1,0.225897,-0.018949,-0.138726,-0.181982,-0.086532,0.201235
switch_PS1247,12.860403,-1.121009,-7.048483,-9.278131,-84.859902,-35.216502
switch_4292348E,2.484967,-0.209885,-1.388588,-1.819099,-0.864200,2.013054
switch_225910E,1.353716,-0.117531,-0.828547,-1.091867,-0.520576,1.209396
switch_26270493,1.355457,-0.114773,-0.833338,-1.091361,-0.518364,1.207932
switch_PS0651,3.388620,-0.286803,-1.944506,-2.546465,-28.056416,-12.368196
switch_4008139,13.980671,-1.237844,-7.724219,-10.186692,-138.524978,-64.429820
switch_BS2229-T_00331$BS2229-T_T_0033-1,1.355457,-0.114773,-0.833338,-1.091361,-0.518364,1.207932
switch_225907E,1.804941,-0.156533,-1.104570,-1.455906,-0.694236,1.612442
switch_BS2229-T_T_00331$BS2229-L_0033-1,-0.000000,0.000000,0.000000,-0.000000,0.000000,0.000000
switch_P5510937-1,1.353771,-0.118540,-0.829473,-1.091364,-0.519776,1.209878
switch_J5190-3,1.353716,-0.117531,-0.828547,-1.091867,-0.520576,1.209396
