VADER_model/alloy/alloy_voltage.csv
# alloy_voltage.csv run at 2013-01-01 00:00:00 PST on 470 nodes
node_name,voltA_mag,voltA_angle,voltB_mag,voltB_angle,voltC_mag,voltC_angle
load_1_A,123.824667,0.020753,123.820915,0.020708,0.000000,0.000000
load_2_B,122.711371,4.170491,122.707585,4.170445,0.000000,0.000000
load_3_C,127.962101,2.085100,127.958469,2.085058,0.000000,0.000000
load_4_A,123.812329,0.019905,123.805573,0.019825,0.000000,0.000000
load_5_B,122.696444,4.169604,122.689628,4.169522,0.000000,0.000000
load_6_C,127.950034,2.084279,127.943495,2.084204,0.000000,0.000000
load_7_A,123.841709,0.021469,123.840686,0.021457,0.000000,0.000000
load_8_A,123.841632,0.021467,123.840609,0.021455,0.000000,0.000000
load_9_A,123.705101,0.024056,123.703052,0.024032,0.000000,0.000000
load_10_A,123.831983,0.021164,123.829732,0.021137,0.000000,0.000000
load_11_B,122.718560,4.170907,122.716289,4.170880,0.000000,0.000000
load_12_C,127.969146,2.085483,127.966967,2.085458,0.000000,0.000000
load_13_A,123.840093,0.021395,123.838804,0.021379,0.000000,0.000000
load_14_B,122.724419,4.171121,122.723119,4.171105,0.000000,0.000000
load_15_C,127.977090,2.085676,127.975842,2.085662,0.000000,0.000000
load_16_A,123.838093,0.021472,123.836967,0.021458,0.000000,0.000000
load_17_B,122.724715,4.171220,122.723580,4.171207,0.000000,0.000000
load_18_C,127.975083,2.085772,127.973993,2.085759,0.000000,0.000000
load_19_A,124.805072,-0.002057,124.793901,-0.002189,0.000000,0.000000
load_20_B,124.292409,4.185197,124.281192,4.185064,0.000000,0.000000
load_21_C,126.148328,2.086073,126.137274,2.085944,0.000000,0.000000
load_22_A,123.826358,0.020856,123.822981,0.020816,0.000000,0.000000
load_23_B,122.712889,4.170594,122.709482,4.170553,0.000000,0.000000
load_24_C,127.963680,2.085194,127.960411,2.085157,0.000000,0.000000
load_25_A,123.974711,0.017319,123.970214,0.017265,0.000000,0.000000
load_26_B,122.947930,4.172753,122.943395,4.172698,0.000000,0.000000
load_27_C,127.700712,2.085210,127.696344,2.085159,0.000000,0.000000
load_28_A,124.104950,0.015777,124.103664,0.015762,0.000000,0.000000
load_29_B,123.147201,4.175545,123.145904,4.175530,0.000000,0.000000
load_30_C,127.520821,2.086303,127.519569,2.086289,0.000000,0.000000
load_31_A,124.517095,0.005395,124.510377,0.005315,0.000000,0.000000
load_32_B,123.822535,4.181354,123.815780,4.181274,0.000000,0.000000
load_33_C,126.694360,2.086404,126.687756,2.086327,0.000000,0.000000
load_34_A,123.809216,0.019933,123.802460,0.019852,0.000000,0.000000
load_35_B,122.695921,4.169657,122.689105,4.169575,0.000000,0.000000
load_36_C,127.947035,2.084332,127.940495,2.084256,0.000000,0.000000
load_37_A,124.137219,0.014733,124.134974,0.014706,0.000000,0.000000
load_38_B,123.201536,4.175895,123.199274,4.175868,0.000000,0.000000
load_39_C,127.452718,2.086159,127.450530,2.086134,0.000000,0.000000
load_40_A,124.705461,-0.000076,124.694281,-0.000208,0.000000,0.000000
load_41_B,124.135017,4.183585,124.123786,4.183451,0.000000,0.000000
load_42_C,126.314924,2.085802,126.303884,2.085673,0.000000,0.000000
load_43_A,123.686818,0.023076,123.681184,0.023009,0.000000,0.000000
load_44_B,122.482978,4.167673,122.477289,4.167605,0.000000,0.000000
load_45_C,128.191980,2.084213,128.186541,2.084150,0.000000,0.000000
load_46_A,123.680960,0.022773,123.674198,0.022692,0.000000,0.000000
load_47_B,122.477481,4.167364,122.470653,4.167282,0.000000,0.000000
load_48_C,128.186643,2.083932,128.180115,2.083857,0.000000,0.000000
load_49_A,123.839068,0.021486,123.837942,0.021472,0.000000,0.000000
load_50_B,122.725558,4.171232,122.724422,4.171218,0.000000,0.000000
load_51_C,127.975748,2.085782,127.974658,2.085770,0.000000,0.000000
load_52_A,123.696426,0.023594,123.692670,0.023549,0.000000,0.000000
load_53_B,122.493083,4.168201,122.489291,4.168155,0.000000,0.000000
load_54_C,128.201619,2.084697,128.197994,2.084656,0.000000,0.000000
load_55_A,123.837624,0.021473,123.836499,0.021459,0.000000,0.000000
load_56_B,122.724248,4.171221,122.723112,4.171207,0.000000,0.000000
load_57_C,127.974628,2.085772,127.973539,2.085760,0.000000,0.000000
load_58_A,123.958148,0.018968,123.957126,0.018955,0.000000,0.000000
load_59_A,123.713367,0.024396,123.712522,0.024386,0.000000,0.000000
load_60_B,122.509363,4.169019,122.508510,4.169008,0.000000,0.000000
load_61_C,128.217530,2.085442,128.216714,2.085432,0.000000,0.000000
load_62_A,123.818398,0.020377,123.813333,0.020317,0.000000,0.000000
load_63_B,122.703568,4.170096,122.698456,4.170034,0.000000,0.000000
load_64_C,127.956184,2.084733,127.951280,2.084676,0.000000,0.000000
load_65_A,123.831609,0.021167,123.829358,0.021140,0.000000,0.000000
load_66_B,122.718188,4.170910,122.715916,4.170883,0.000000,0.000000
load_67_C,127.968782,2.085486,127.966603,2.085460,0.000000,0.000000
load_68_A,124.378346,0.008220,124.371621,0.008140,0.000000,0.000000
load_69_B,123.601127,4.179056,123.594361,4.178975,0.000000,0.000000
load_70_C,126.930378,2.086019,126.923787,2.085943,0.000000,0.000000
load_71_A,123.698348,0.023694,123.694968,0.023654,0.000000,0.000000
load_72_B,122.495021,4.168303,122.491608,4.168262,0.000000,0.000000
load_73_C,128.203484,2.084791,128.200221,2.084754,0.000000,0.000000
load_74_A,123.659986,0.021546,123.648712,0.021412,0.000000,0.000000
load_75_B,122.455532,4.166113,122.444149,4.165976,0.000000,0.000000
load_76_C,128.165707,2.082784,128.154825,2.082659,0.000000,0.000000
load_77_A,123.827822,0.020801,123.824445,0.020760,0.000000,0.000000
load_78_B,122.712191,4.170521,122.708784,4.170480,0.000000,0.000000
load_79_C,127.965797,2.085123,127.962528,2.085085,0.000000,0.000000
load_80_A,123.827982,0.020808,123.824606,0.020768,0.000000,0.000000
load_81_B,122.712371,4.170529,122.708964,4.170488,0.000000,0.000000
load_82_C,127.965882,2.085130,127.962613,2.085092,0.000000,0.000000
load_83_A,123.826473,0.020854,123.823097,0.020814,0.000000,0.000000
load_84_B,122.713797,4.170598,122.710390,4.170557,0.000000,0.000000
load_85_C,127.963586,2.085200,127.960317,2.085162,0.000000,0.000000
load_86_A,123.958203,0.018969,123.957181,0.018957,0.000000,0.000000
load_87_A,124.011826,0.017810,124.010702,0.017796,0.000000,0.000000
load_88_B,122.997724,4.174024,122.996591,4.174010,0.000000,0.000000
load_89_C,127.683444,2.086128,127.682352,2.086115,0.000000,0.000000
load_90_A,123.709857,0.024309,123.708731,0.024295,0.000000,0.000000
load_91_B,122.506629,4.168930,122.505492,4.168916,0.000000,0.000000
load_92_C,128.214643,2.085364,128.213555,2.085352,0.000000,0.000000
load_93_A,123.821901,0.020550,123.817398,0.020496,0.000000,0.000000
load_94_B,122.707770,4.170275,122.703227,4.170221,0.000000,0.000000
load_95_C,127.959284,2.084900,127.954925,2.084850,0.000000,0.000000
load_96_A,123.724564,0.018529,123.709196,0.018345,0.000000,0.000000
load_97_B,122.574186,4.166413,122.558675,4.166226,0.000000,0.000000
load_98_C,127.987749,2.081924,127.972887,2.081752,0.000000,0.000000
load_99_A,123.831468,0.021168,123.829217,0.021141,0.000000,0.000000
load_100_B,122.718047,4.170911,122.715776,4.170883,0.000000,0.000000
load_101_C,127.968645,2.085486,127.966466,2.085461,0.000000,0.000000
load_102_A,123.827766,0.020800,123.824390,0.020760,0.000000,0.000000
load_103_B,122.712132,4.170520,122.708725,4.170479,0.000000,0.000000
load_104_C,127.965765,2.085122,127.962496,2.085084,0.000000,0.000000
load_105_A,123.700684,0.023706,123.697304,0.023665,0.000000,0.000000
load_106_B,122.496590,4.168314,122.493177,4.168273,0.000000,0.000000
load_107_C,128.205127,2.084797,128.201864,2.084760,0.000000,0.000000
load_108_A,123.954243,0.015161,123.942996,0.015027,0.000000,0.000000
load_109_B,122.936905,4.171125,122.925566,4.170989,0.000000,0.000000
load_110_C,127.642380,2.083507,127.631454,2.083381,0.000000,0.000000
load_111_A,123.838435,0.021496,123.837411,0.021484,0.000000,0.000000
load_112_A,123.823836,0.020757,123.820084,0.020713,0.000000,0.000000
load_113_B,122.710354,4.170493,122.706568,4.170448,0.000000,0.000000
load_114_C,127.961229,2.085102,127.957597,2.085060,0.000000,0.000000
load_115_A,123.810633,0.019884,123.803878,0.019804,0.000000,0.000000
load_116_B,122.694880,4.169588,122.688064,4.169506,0.000000,0.000000
load_117_C,127.949030,2.084264,127.942490,2.084188,0.000000,0.000000
load_118_A,123.659990,0.021550,123.648717,0.021415,0.000000,0.000000
load_119_B,122.455538,4.166116,122.444154,4.165979,0.000000,0.000000
load_120_C,128.165707,2.082787,128.154825,2.082662,0.000000,0.000000
load_121_A,123.704096,0.024000,123.701842,0.023973,0.000000,0.000000
load_122_B,122.500406,4.168615,122.498130,4.168588,0.000000,0.000000
load_123_C,128.208723,2.085074,128.206548,2.085049,0.000000,0.000000
load_124_A,124.199927,0.008053,124.183086,0.007853,0.000000,0.000000
load_125_B,123.346576,4.174161,123.329619,4.173958,0.000000,0.000000
load_126_C,127.094469,2.083040,127.078007,2.082849,0.000000,0.000000
meter_1,123.824667,0.020753,123.820915,0.020708,0.000000,0.000000
meter_2,122.711371,4.170491,122.707585,4.170445,0.000000,0.000000
meter_3,127.962101,2.085100,127.958469,2.085058,0.000000,0.000000
meter_4,123.812329,0.019905,123.805573,0.019825,0.000000,0.000000
meter_5,122.696444,4.169604,122.689628,4.169522,0.000000,0.000000
meter_6,127.950034,2.084279,127.943495,2.084204,0.000000,0.000000
meter_7,123.841709,0.021469,123.840686,0.021457,0.000000,0.000000
meter_8,123.841632,0.021467,123.840609,0.021455,0.000000,0.000000
meter_9,123.705101,0.024056,123.703052,0.024032,0.000000,0.000000
meter_10,123.831983,0.021164,123.829732,0.021137,0.000000,0.000000
meter_11,122.718560,4.170907,122.716289,4.170880,0.000000,0.000000
meter_12,127.969146,2.085483,127.966967,2.085458,0.000000,0.000000
meter_13,123.840093,0.021395,123.838804,0.021379,0.000000,0.000000
meter_14,123.840093,0.021395,123.838804,0.021379,0.000000,0.000000
meter_15,123.840093,0.021395,123.838804,0.021379,0.000000,0.000000
meter_16,122.724419,4.171121,122.723119,4.171105,0.000000,0.000000
meter_17,122.724419,4.171121,122.723119,4.171105,0.000000,0.000000
meter_18,122.724419,4.171121,122.723119,4.171105,0.000000,0.000000
meter_19,127.977090,2.085676,127.975842,2.085662,0.000000,0.000000
meter_20,127.977090,2.085676,127.975842,2.085662,0.000000,0.000000
meter_21,127.977090,2.085676,127.975842,2.085662,0.000000,0.000000
meter_22,123.838093,0.021472,123.836967,0.021458,0.000000,0.000000
meter_23,123.838093,0.021472,123.836967,0.021458,0.000000,0.000000
meter_24,122.724715,4.171220,122.723580,4.171207,0.000000,0.000000
meter_25,122.724715,4.171220,122.723580,4.171207,0.000000,0.000000
meter_26,127.975083,2.085772,127.973993,2.085759,0.000000,0.000000
meter_27,127.975083,2.085772,127.973993,2.085759,0.000000,0.000000
meter_28,124.805072,-0.002057,124.793901,-0.002189,0.000000,0.000000
meter_29,124.292409,4.185197,124.281192,4.185064,0.000000,0.000000
meter_30,126.148328,2.086073,126.137274,2.085944,0.000000,0.000000
meter_31,123.826358,0.020856,123.822981,0.020816,0.000000,0.000000
meter_32,122.712889,4.170594,122.709482,4.170553,0.000000,0.000000
meter_33,127.963680,2.085194,127.960411,2.085157,0.000000,0.000000
meter_34,123.974711,0.017319,123.970214,0.017265,0.000000,0.000000
meter_35,122.947930,4.172753,122.943395,4.172698,0.000000,0.000000
meter_36,127.700712,2.085210,127.696344,2.085159,0.000000,0.000000
meter_37,124.104950,0.015777,124.103664,0.015762,0.000000,0.000000
meter_38,124.104950,0.015777,124.103664,0.015762,0.000000,0.000000
meter_39,124.104950,0.015777,124.103664,0.015762,0.000000,0.000000
meter_40,123.147201,4.175545,123.145904,4.175530,0.000000,0.000000
meter_41,123.147201,4.175545,123.145904,4.175530,0.000000,0.000000
meter_42,123.147201,4.175545,123.145904,4.175530,0.000000,0.000000
meter_43,127.520821,2.086303,127.519569,2.086289,0.000000,0.000000
meter_44,127.520821,2.086303,127.519569,2.086289,0.000000,0.000000
meter_45,127.520821,2.086303,127.519569,2.086289,0.000000,0.000000
meter_46,124.517095,0.005395,124.510377,0.005315,0.000000,0.000000
meter_47,123.822535,4.181354,123.815780,4.181274,0.000000,0.000000
meter_48,126.694360,2.086404,126.687756,2.086327,0.000000,0.000000
meter_49,123.809216,0.019933,123.802460,0.019852,0.000000,0.000000
meter_50,122.695921,4.169657,122.689105,4.169575,0.000000,0.000000
meter_51,127.947035,2.084332,127.940495,2.084256,0.000000,0.000000
meter_52,124.137219,0.014733,124.134974,0.014706,0.000000,0.000000
meter_53,123.201536,4.175895,123.199274,4.175868,0.000000,0.000000
meter_54,127.452718,2.086159,127.450530,2.086134,0.000000,0.000000
meter_55,124.705461,-0.000076,124.694281,-0.000208,0.000000,0.000000
meter_56,124.135017,4.183585,124.123786,4.183451,0.000000,0.000000
meter_57,126.314924,2.085802,126.303884,2.085673,0.000000,0.000000
meter_58,123.686818,0.023076,123.681184,0.023009,0.000000,0.000000
meter_59,123.686818,0.023076,123.681184,0.023009,0.000000,0.000000
meter_60,123.686818,0.023076,123.681184,0.023009,0.000000,0.000000
meter_61,123.686818,0.023076,123.681184,0.023009,0.000000,0.000000
meter_62,123.686818,0.023076,123.681184,0.023009,0.000000,0.000000
meter_63,122.482978,4.167673,122.477289,4.167605,0.000000,0.000000
meter_64,122.482978,4.167673,122.477289,4.167605,0.000000,0.000000
meter_65,122.482978,4.167673,122.477289,4.167605,0.000000,0.000000
meter_66,122.482978,4.167673,122.477289,4.167605,0.000000,0.000000
meter_67,122.482978,4.167673,122.477289,4.167605,0.000000,0.000000
meter_68,128.191980,2.084213,128.186541,2.084150,0.000000,0.000000
meter_69,128.191980,2.084213,128.186541,2.084150,0.000000,0.000000
meter_70,128.191980,2.084213,128.186541,2.084150,0.000000,0.000000
meter_71,128.191980,2.084213,128.186541,2.084150,0.000000,0.000000
meter_72,128.191980,2.084213,128.186541,2.084150,0.000000,0.000000
meter_73,123.680960,0.022773,123.674198,0.022692,0.000000,0.000000
meter_74,122.477481,4.167364,122.470653,4.167282,0.000000,0.000000
meter_75,128.186643,2.083932,128.180115,2.083857,0.000000,0.000000
meter_76,123.839068,0.021486,123.837942,0.021472,0.000000,0.000000
meter_77,123.839068,0.021486,123.837942,0.021472,0.000000,0.000000
meter_78,122.725558,4.171232,122.724422,4.171218,0.000000,0.000000
meter_79,122.725558,4.171232,122.724422,4.171218,0.000000,0.000000
meter_80,127.975748,2.085782,127.974658,2.085770,0.000000,0.000000
meter_81,127.975748,2.085782,127.974658,2.085770,0.000000,0.000000
meter_82,123.696426,0.023594,123.692670,0.023549,0.000000,0.000000
meter_83,122.493083,4.168201,122.489291,4.168155,0.000000,0.000000
meter_84,128.201619,2.084697,128.197994,2.084656,0.000000,0.000000
meter_85,123.837624,0.021473,123.836499,0.021459,0.000000,0.000000
meter_86,122.724248,4.171221,122.723112,4.171207,0.000000,0.000000
meter_87,127.974628,2.085772,127.973539,2.085760,0.000000,0.000000
meter_88,123.958148,0.018968,123.957126,0.018955,0.000000,0.000000
meter_89,123.713367,0.024396,123.712522,0.024386,0.000000,0.000000
meter_90,122.509363,4.169019,122.508510,4.169008,0.000000,0.000000
meter_91,128.217530,2.085442,128.216714,2.085432,0.000000,0.000000
meter_92,123.818398,0.020377,123.813333,0.020317,0.000000,0.000000
meter_93,123.818398,0.020377,123.813333,0.020317,0.000000,0.000000
meter_94,123.818398,0.020377,123.813333,0.020317,0.000000,0.000000
meter_95,123.818398,0.020377,123.813333,0.020317,0.000000,0.000000
meter_96,123.818398,0.020377,123.813333,0.020317,0.000000,0.000000
meter_97,123.818398,0.020377,123.813333,0.020317,0.000000,0.000000
meter_98,122.703568,4.170096,122.698456,4.170034,0.000000,0.000000
meter_99,122.703568,4.170096,122.698456,4.170034,0.000000,0.000000
meter_100,122.703568,4.170096,122.698456,4.170034,0.000000,0.000000
meter_101,122.703568,4.170096,122.698456,4.170034,0.000000,0.000000
meter_102,122.703568,4.170096,122.698456,4.170034,0.000000,0.000000
meter_103,122.703568,4.170096,122.698456,4.170034,0.000000,0.000000
meter_104,127.956184,2.084733,127.951280,2.084676,0.000000,0.000000
meter_105,127.956184,2.084733,127.951280,2.084676,0.000000,0.000000
meter_106,127.956184,2.084733,127.951280,2.084676,0.000000,0.000000
meter_107,127.956184,2.084733,127.951280,2.084676,0.000000,0.000000
meter_108,127.956184,2.084733,127.951280,2.084676,0.000000,0.000000
meter_109,127.956184,2.084733,127.951280,2.084676,0.000000,0.000000
meter_110,123.831609,0.021167,123.829358,0.021140,0.000000,0.000000
meter_111,122.718188,4.170910,122.715916,4.170883,0.000000,0.000000
meter_112,127.968782,2.085486,127.966603,2.085460,0.000000,0.000000
meter_113,124.378346,0.008220,124.371621,0.008140,0.000000,0.000000
meter_114,123.601127,4.179056,123.594361,4.178975,0.000000,0.000000
meter_115,126.930378,2.086019,126.923787,2.085943,0.000000,0.000000
meter_116,123.698348,0.023694,123.694968,0.023654,0.000000,0.000000
meter_117,122.495021,4.168303,122.491608,4.168262,0.000000,0.000000
meter_118,128.203484,2.084791,128.200221,2.084754,0.000000,0.000000
meter_119,123.659986,0.021546,123.648712,0.021412,0.000000,0.000000
meter_120,122.455532,4.166113,122.444149,4.165976,0.000000,0.000000
meter_121,128.165707,2.082784,128.154825,2.082659,0.000000,0.000000
meter_122,123.827822,0.020801,123.824445,0.020760,0.000000,0.000000
meter_123,122.712191,4.170521,122.708784,4.170480,0.000000,0.000000
meter_124,127.965797,2.085123,127.962528,2.085085,0.000000,0.000000
meter_125,123.827982,0.020808,123.824606,0.020768,0.000000,0.000000
meter_126,122.712371,4.170529,122.708964,4.170488,0.000000,0.000000
meter_127,127.965882,2.085130,127.962613,2.085092,0.000000,0.000000
meter_128,123.826473,0.020854,123.823097,0.020814,0.000000,0.000000
meter_129,122.713797,4.170598,122.710390,4.170557,0.000000,0.000000
meter_130,127.963586,2.085200,127.960317,2.085162,0.000000,0.000000
meter_131,123.958203,0.018969,123.957181,0.018957,0.000000,0.000000
meter_132,124.011826,0.017810,124.010702,0.017796,0.000000,0.000000
meter_133,124.011826,0.017810,124.010702,0.017796,0.000000,0.000000
meter_134,122.997724,4.174024,122.996591,4.174010,0.000000,0.000000
meter_135,122.997724,4.174024,122.996591,4.174010,0.000000,0.000000
meter_136,127.683444,2.086128,127.682352,2.086115,0.000000,0.000000
meter_137,127.683444,2.086128,127.682352,2.086115,0.000000,0.000000
meter_138,123.709857,0.024309,123.708731,0.024295,0.000000,0.000000
meter_139,122.506629,4.168930,122.505492,4.168916,0.000000,0.000000
meter_140,128.214643,2.085364,128.213555,2.085352,0.000000,0.000000
meter_141,123.821901,0.020550,123.817398,0.020496,0.000000,0.000000
meter_142,122.707770,4.170275,122.703227,4.170221,0.000000,0.000000
meter_143,127.959284,2.084900,127.954925,2.084850,0.000000,0.000000
meter_144,123.724564,0.018529,123.709196,0.018345,0.000000,0.000000
meter_145,122.574186,4.166413,122.558675,4.166226,0.000000,0.000000
meter_146,127.987749,2.081924,127.972887,2.081752,0.000000,0.000000
meter_147,123.831468,0.021168,123.829217,0.021141,0.000000,0.000000
meter_148,122.718047,4.170911,122.715776,4.170883,0.000000,0.000000
meter_149,127.968645,2.085486,127.966466,2.085461,0.000000,0.000000
meter_150,123.827766,0.020800,123.824390,0.020760,0.000000,0.000000
meter_151,122.712132,4.170520,122.708725,4.170479,0.000000,0.000000
meter_152,127.965765,2.085122,127.962496,2.085084,0.000000,0.000000
meter_153,123.700684,0.023706,123.697304,0.023665,0.000000,0.000000
meter_154,122.496590,4.168314,122.493177,4.168273,0.000000,0.000000
meter_155,128.205127,2.084797,128.201864,2.084760,0.000000,0.000000
meter_156,123.954243,0.015161,123.942996,0.015027,0.000000,0.000000
meter_157,122.936905,4.171125,122.925566,4.170989,0.000000,0.000000
meter_158,127.642380,2.083507,127.631454,2.083381,0.000000,0.000000
meter_159,123.838435,0.021496,123.837411,0.021484,0.000000,0.000000
meter_160,123.823836,0.020757,123.820084,0.020713,0.000000,0.000000
meter_161,122.710354,4.170493,122.706568,4.170448,0.000000,0.000000
meter_162,127.961229,2.085102,127.957597,2.085060,0.000000,0.000000
meter_163,123.810633,0.019884,123.803878,0.019804,0.000000,0.000000
meter_164,122.694880,4.169588,122.688064,4.169506,0.000000,0.000000
meter_165,127.949030,2.084264,127.942490,2.084188,0.000000,0.000000
meter_166,123.659990,0.021550,123.648717,0.021415,0.000000,0.000000
meter_167,122.455538,4.166116,122.444154,4.165979,0.000000,0.000000
meter_168,128.165707,2.082787,128.154825,2.082662,0.000000,0.000000
meter_169,123.704096,0.024000,123.701842,0.023973,0.000000,0.000000
meter_170,122.500406,4.168615,122.498130,4.168588,0.000000,0.000000
meter_171,128.208723,2.085074,128.206548,2.085049,0.000000,0.000000
meter_172,124.199927,0.008053,124.183086,0.007853,0.000000,0.000000
meter_173,123.346576,4.174161,123.329619,4.173958,0.000000,0.000000
meter_174,127.094469,2.083040,127.078007,2.082849,0.000000,0.000000
source_00331,7199.770000,0.000000,7199.770000,4.188790,7199.770000,2.094395
capacitor_1212216E,7143.084473,0.024577,7073.481623,4.169191,7403.170029,2.085596
capacitor_678138E,7150.554770,0.021727,7086.053916,4.171448,7389.427847,2.085974
capacitor_1088562E,7174.160319,0.013268,7123.851371,4.178291,7345.982165,2.087332
node_4636936E_00331,7142.935189,0.024622,7073.467515,4.169249,7403.017063,2.085656
node_ND106197673_00331,7213.119939,-0.000373,7185.772143,4.189326,7280.023252,2.089313
node_PS1388_00331_1,7215.168268,-0.001257,7190.313112,4.190017,7273.211865,2.089524
node_718811E_00331_1,7142.935019,0.024619,7073.467298,4.169246,7403.017058,2.085654
node_4431000E_00331,7142.936452,0.024619,7073.468828,4.169246,7403.017906,2.085653
node_4707115E_00331,7150.420273,0.021729,7086.016279,4.171466,7389.301200,2.085993
node_ND26309561_00331,7209.158070,0.000967,7179.569672,4.188245,7286.681476,2.089034
node_211437E_00331,7148.032281,0.022726,7081.651736,4.170688,7394.038585,2.085852
node_4008139_00331,7215.685908,-0.001479,7191.458389,4.190192,7271.503910,2.089578
node_PS0567_00331,7150.370983,0.021786,7086.088090,4.171539,7389.210770,2.086065
node_678135E_00331,7150.410943,0.021723,7086.005957,4.171459,7389.296161,2.085987
node_ND26270649_00331,7165.797372,0.016128,7110.502708,4.175902,7363.030233,2.086650
node_1658250EPT1_00331_1,7213.119939,-0.000373,7185.772143,4.189326,7280.023252,2.089313
node_BF00286_00331_1,7150.408716,0.021761,7086.054203,4.171504,7389.267431,2.086030
node_ND70640903_00331,7150.554770,0.021727,7086.053916,4.171448,7389.427847,2.085974
node_PS0651_00331_1,7147.857482,0.022774,7081.329565,4.170624,7394.912932,2.085815
node_P5354648-A_00331,7150.318838,0.021779,7086.038673,4.171533,7389.166596,2.086060
node_P5444394-1_T_00331,7142.935627,0.024616,7073.444162,4.169243,7402.997968,2.085649
node_ND102927457_00331,7142.936531,0.024620,7073.468929,4.169247,7403.017905,2.085654
node_972235E_00331,7142.984711,0.024619,7073.493434,4.169246,0.000000,0.000000
node_2320044E_00331_1,7165.796668,0.016128,7110.501865,4.175902,7363.029751,2.086650
node_26270533_00331_1,7150.504250,0.021747,7086.091867,4.171479,7389.350371,2.086006
node_BF00287_00331,7150.420951,0.021725,7086.016696,4.171462,7389.301833,2.085990
node_26268859_00331,7150.344308,0.021780,7086.064144,4.171534,7389.191257,2.086060
node_PS0651_00331,7147.857331,0.022774,7081.329423,4.170624,7394.911254,2.085815
node_1679350E_00331,7143.056075,0.024627,7073.542946,4.169254,7403.104256,2.085657
node_1809759E_00331,7150.420215,0.021731,7086.016322,4.171467,7389.301084,2.085995
node_P5341496-1_00331,7150.396241,0.021793,7086.108402,4.171544,7389.225418,2.086070
node_ND10904198_00331,7142.935019,0.024619,7073.467298,4.169246,7403.017058,2.085654
node_PS0433_00331,7150.333106,0.021777,7086.098675,4.171537,7389.168529,2.086065
node_P5502416-1_00331,7150.503652,0.021747,7086.091267,4.171479,7389.349794,2.086006
node_BF00287_00331_1,7150.420911,0.021725,7086.016656,4.171462,7389.301794,2.085990
node_ND102927436_00331,7142.935019,0.024619,7073.467298,4.169246,7403.017058,2.085654
node_1252657E_00331,7203.408608,0.002955,7170.486551,4.186643,7296.296325,2.088758
node_225910E_00331,7150.331806,0.021778,7086.051611,4.171532,7389.179210,2.086059
node_225914E_00331,7150.333106,0.021777,7086.098675,4.171537,7389.168529,2.086065
node_2320043E_00331,7167.940780,0.015345,7113.921847,4.176516,7359.351930,2.086740
node_ND26309954_00331,7150.370983,0.021786,7086.088090,4.171539,7389.210770,2.086065
node_678145E_00331,7160.053570,0.018228,7101.340332,4.174242,7372.909239,2.086403
node_PS1247_00331_1,7168.946185,0.015114,7115.641665,4.176842,7354.858061,2.086995
node_211420E_00331_1,7160.372686,0.018117,7101.824089,4.174336,7372.351639,2.086418
node_226772E_00331,7150.402259,0.021779,7086.086538,4.171527,7389.243837,2.086053
node_ND26270587_00331,7150.535915,0.021755,7086.125683,4.171486,7389.369232,2.086013
node_BF00289_00331_1,7157.248776,0.019249,7096.889909,4.173426,0.000000,0.000000
node_ND26270569_00331,7160.648484,0.018011,7102.283721,4.174415,7371.889462,2.086428
node_ND26270630_00331,7142.989242,0.024620,7073.497982,4.169247,7403.049692,2.085652
node_26270533_00331,7150.504280,0.021747,7086.091897,4.171479,7389.350400,2.086006
node_ND102927544_00331,7143.070982,0.024625,7073.558964,4.169251,7403.112760,2.085655
node_J5190-3P_00331,7150.344247,0.021780,7086.064083,4.171534,7389.191199,2.086060
node_26270503_00331_1,7142.937908,0.024616,7073.446452,4.169243,7403.000169,2.085649
node_ND26270588_00331,7150.421432,0.021725,7086.017213,4.171462,7389.302105,2.085990
node_1088558E_00331,7183.190119,0.010048,7138.327046,4.180907,7330.501117,2.087776
node_33165E_00331,7150.397606,0.021793,7086.109769,4.171545,7389.226733,2.086071
node_1409957E_00331_1,7150.406063,0.021761,7086.051546,4.171504,7389.264850,2.086030
node_26270503_00331,7142.937898,0.024616,7073.446442,4.169243,7403.000159,2.085649
node_ND108680947_00331,7142.937742,0.024617,7073.470088,4.169244,7403.019292,2.085651
node_1590592E_00331,7143.071172,0.024628,7073.559207,4.169254,7403.112765,2.085657
node_ND26270609_00331,7150.320147,0.021779,7086.039984,4.171533,7389.167859,2.086060
node_P5354648-T_F_00331,7150.318818,0.021779,7086.038653,4.171533,7389.166577,2.086060
node_ND94548081_00331,7173.660519,0.013444,7123.065448,4.178153,7346.831127,2.087300
node_P5444394-1_00331,7142.935637,0.024616,7073.444173,4.169243,7402.997978,2.085649
node_BF00289_00331,7157.248756,0.019249,7096.889909,4.173426,0.000000,0.000000
node_4094874E_00331,7142.938713,0.024617,7073.470286,4.169243,7403.020249,2.085651
node_1557881E_00331_1,7213.119939,-0.000373,7185.772143,4.189326,7280.023252,2.089313
node_1088555E_00331,7191.199081,0.007219,7151.107234,4.183199,7316.877373,2.088167
node_ND26270624_00331,7143.062897,0.024629,7073.550317,4.169255,7403.108037,2.085658
node_4292348E_00331_1,7143.061510,0.024624,7073.554012,4.169251,7403.105565,2.085654
node_P5513970_00331,7165.794893,0.016128,7110.500108,4.175901,7363.027849,2.086650
node_26270493_00331,7142.940564,0.024617,7073.449118,4.169243,7403.002731,2.085649
node_ND106197862_00331,7214.401502,-0.000926,7188.614315,4.189759,7275.759393,2.089445
node_211021E_00331,7150.297250,0.021782,7086.017152,4.171536,7389.145568,2.086062
node_BF00286_00331,7150.408776,0.021761,7086.054264,4.171504,7389.267490,2.086030
node_P5341496-1_T_00331,7150.396221,0.021793,7086.108381,4.171544,7389.225398,2.086070
node_2320044E_00331,7165.796698,0.016128,7110.501895,4.175902,7363.029781,2.086650
node_26270513_00331,7142.935776,0.024616,7073.444313,4.169243,7402.998113,2.085649
node_J5190-1P_00331,7150.344404,0.021780,7086.064242,4.171534,7389.191350,2.086060
node_PS1247_00331,7168.945609,0.015114,7115.641153,4.176842,7354.852938,2.086994
node_ND26270595_00331,7157.249414,0.019250,7096.889061,4.173426,7377.724065,2.086280
node_26270513_00331_1,7142.935766,0.024616,7073.444303,4.169243,7402.998103,2.085649
node_1557881E_00331,7213.119939,-0.000373,7185.772143,4.189326,7280.023252,2.089313
node_ND102927497_00331,7148.032283,0.022726,7081.651723,4.170688,7394.038601,2.085851
node_225910E_00331_1,7150.331746,0.021778,7086.051550,4.171532,7389.179152,2.086059
node_PS1388_00331,7215.168906,-0.001257,7190.313665,4.190017,7273.220113,2.089525
node_PS1390_00331,7214.401502,-0.000926,7188.614315,4.189759,7275.759393,2.089445
node_1590590E_00331,7143.071424,0.024631,7073.559530,4.169257,7403.112763,2.085660
node_P5445191-1_T_00331,7150.339916,0.021779,7086.059742,4.171533,7389.187025,2.086060
node_PS0485_00331_1,7148.434592,0.022574,7082.311622,4.170807,7393.327671,2.085870
node_ND26270603_00331,7160.921671,0.017912,7102.716823,4.174494,7371.421369,2.086440
node_4292348E_00331,7143.061399,0.024624,7073.553910,4.169251,7403.105468,2.085654
node_ND26309426_00331,7150.397669,0.021792,7086.109764,4.171544,7389.226835,2.086070
node_26270493_00331_1,7142.940624,0.024617,7073.449179,4.169243,7403.002789,2.085649
node_P5354648-A_T_00331,7150.318828,0.021779,7086.038663,4.171533,7389.166587,2.086060
node_718811E_00331,7142.935019,0.024619,7073.467298,4.169246,7403.017058,2.085654
node_225907E_00331_1,7150.354066,0.021781,7086.073928,4.171535,7389.200661,2.086062
node_678136E_00331,7150.407746,0.021722,7086.002526,4.171459,7389.294355,2.085987
node_ND102927565_00331,7143.084473,0.024577,7073.481623,4.169191,7403.170029,2.085596
node_ND26309919_00331,7160.921671,0.017912,7102.716823,4.174494,7371.421369,2.086440
node_1658250EPT1_00331,7213.119939,-0.000373,7185.772143,4.189326,7280.023252,2.089313
node_225912E_00331,7150.339814,0.021777,7086.070456,4.171534,7389.190630,2.086060
node_151092E_00331,7150.319946,0.021779,7086.039783,4.171533,7389.167664,2.086060
node_211421E_00331,7159.223601,0.018546,7099.950259,4.174000,7374.316988,2.086367
node_ND26309629_00331,7160.374688,0.018117,7101.826077,4.174336,7372.353577,2.086418
node_J5190-2P_00331,7150.344295,0.021780,7086.064131,4.171534,7389.191245,2.086060
node_26270557_00331,7165.795177,0.016128,7110.500390,4.175901,7363.028154,2.086650
node_33165E_00331_1,7150.397626,0.021793,7086.109790,4.171545,7389.226752,2.086071
node_26270557_00331_1,7165.795207,0.016128,7110.500420,4.175901,7363.028185,2.086650
node_26270523_00331_1,7150.340072,0.021779,7086.059898,4.171533,7389.187176,2.086060
node_ND98973562_00331,7169.338283,0.014974,7116.259846,4.176951,7354.189123,2.087020
node_1511150E_00331,7142.984711,0.024619,7073.493434,4.169246,0.000000,0.000000
node_PS0025_00331,7173.660519,0.013444,7123.065448,4.178153,7346.831127,2.087300
...